Circuit: * C:\Users\ricca\OneDrive\Documenti\netlist_wdf_simulator\netlist_wdf_simulator\data\netlist\Crossover.asc

.OP point found by inspection.

Date: Thu Apr 13 19:50:05 2023
Total elapsed time: 10.135 seconds.

tnom = 27
temp = 27
method = modified trap
totiter = 3368614
traniter = 3368614
tranpoints = 1684308
accept = 1682435
rejected = 1873
matrix size = 8
fillins = 0
solver = Normal
Avg thread counts: 1.0/1.0/1.0/1.0
Matrix Compiler1: 318 bytes object code size  0.2/0.2/[0.2]
Matrix Compiler2: 528 bytes object code size  0.2/0.2/[0.2]

